sim/current_out.csv
# current_out.csv run at 1999-12-31 19:00:00 EST on 25 links
link_name,currA_mag,currA_angle,currB_mag,currB_angle,currC_mag,currC_angle
sourceton111,0.008019,-0.000028,0.016038,4.188727,0.040096,2.094229
n111ton125,0.008019,-0.000028,0.016038,4.188727,0.040096,2.094229
s36,0.008019,-0.000028,0.016038,4.188726,0.040096,2.094229
f27,0.008019,-0.000031,0.016038,4.188725,0.040096,2.094229
f28,0.008019,-0.000033,0.016038,4.188727,0.040096,2.094229
t11,0.008019,-0.000032,0.016038,4.188725,0.040096,2.094229
f_n130n131,0.208325,-0.000032,0.416654,4.188725,1.041655,2.094229
